Version 4
SHEET 1 880 680
WIRE -672 80 -832 80
WIRE -448 80 -608 80
WIRE -320 80 -448 80
WIRE -208 80 -320 80
WIRE -112 80 -208 80
WIRE 272 80 144 80
WIRE 544 80 272 80
WIRE 656 80 544 80
WIRE -448 112 -448 80
WIRE -320 112 -320 80
WIRE -208 112 -208 80
WIRE 272 112 272 80
WIRE -832 128 -832 80
WIRE 544 128 544 80
WIRE 656 128 656 80
WIRE -448 208 -448 176
WIRE -320 208 -320 176
WIRE -208 208 -208 176
WIRE 16 224 16 176
WIRE 272 224 272 192
WIRE 272 224 16 224
WIRE 272 272 272 224
WIRE 16 288 16 224
FLAG 16 352 0
FLAG 272 352 0
FLAG 544 192 0
FLAG 656 192 0
FLAG -208 208 0
FLAG -320 208 0
FLAG -448 208 0
FLAG -832 208 0
FLAG 656 80 +5V
FLAG -832 80 VBAT
SYMBOL res 256 96 R0
SYMATTR InstName R1
SYMATTR Value 120
SYMATTR SpiceLine tol=5
SYMBOL res 256 256 R0
SYMATTR InstName R2
SYMATTR Value 360
SYMATTR SpiceLine tol=5
SYMBOL cap 640 128 R0
SYMATTR InstName C2
SYMATTR Value 100n
SYMBOL cap 0 288 R0
SYMATTR InstName C3
SYMATTR Value 10µ
SYMBOL cap -336 112 R0
SYMATTR InstName C5
SYMATTR Value 100n
SYMBOL diode -672 96 R270
WINDOW 0 32 32 VTop 2
WINDOW 3 0 32 VBottom 2
SYMATTR InstName D1N4002
SYMBOL zener -432 176 R180
WINDOW 0 24 64 Left 2
WINDOW 3 24 0 Left 2
SYMATTR InstName D1N4733A
SYMBOL voltage -832 112 R0
WINDOW 123 0 0 Left 0
WINDOW 39 0 0 Left 0
WINDOW 3 -17 135 Left 2
SYMATTR Value PULSE(0 12 0 10m 0 100m 200m)
SYMATTR InstName V1
SYMBOL polcap -224 112 R0
SYMATTR InstName C1
SYMATTR Value 1µ
SYMBOL polcap 528 128 R0
SYMATTR InstName C4
SYMATTR Value 1µ
SYMBOL PowerProducts\\LT1086 16 80 R0
SYMATTR InstName U2
TEXT -744 -112 Left 2 !.model D1N4002 D (IS=5u N=1.7 RS=0.01 BV=100 IBV=5u CJO=20p)\n.model D1N4733A D (BV=6 IBV=5u IS=1p N=1.5 RS=0.1)
TEXT -872 376 Left 2 !.tran 0 50m 5m
